/*--------------------------------*- C++ -*----------------------------------*\
  =========                 |
  \\      /  F ield         | OpenFOAM: The Open Source CFD Toolbox
   \\    /   O peration     | Website:  https://openfoam.org
    \\  /    A nd           | Version:  dev
     \\/     M anipulation  |
\*---------------------------------------------------------------------------*/
FoamFile
{
    format      ascii;
    class       extendedFeatureEdgeMesh;
    location    "constant/extendedFeatureEdgeMesh";
    object      buildings.extendedFeatureEdgeMesh;
}
// * * * * * * * * * * * * * * * * * * * * * * * * * * * * * * * * * * * * * //

// points

40
(
(12.5 15 0)
(27.5 25 0)
(27.5 15 0)
(12.5 25 0)
(12.5 15 40)
(27.5 15 40)
(27.5 25 40)
(12.5 25 40)
(44 9 0)
(56 21 0)
(56 9 0)
(44 21 0)
(44 9 55)
(56 9 55)
(56 21 55)
(44 21 55)
(71 17.5 0)
(89 32.5 0)
(89 17.5 0)
(71 32.5 0)
(71 17.5 35)
(89 17.5 35)
(89 32.5 35)
(71 32.5 35)
(15 47 0)
(35 63 0)
(35 47 0)
(15 63 0)
(15 47 48)
(35 47 48)
(35 63 48)
(15 63 48)
(58 51 0)
(72 69 0)
(72 51 0)
(58 69 0)
(58 51 62)
(72 51 62)
(72 69 62)
(58 69 62)
)

// edges

60
(
(2 0)
(1 2)
(3 1)
(0 3)
(4 5)
(5 6)
(6 7)
(7 4)
(2 5)
(4 0)
(3 7)
(6 1)
(10 8)
(9 10)
(11 9)
(8 11)
(12 13)
(13 14)
(14 15)
(15 12)
(10 13)
(12 8)
(11 15)
(14 9)
(18 16)
(17 18)
(19 17)
(16 19)
(20 21)
(21 22)
(22 23)
(23 20)
(18 21)
(20 16)
(19 23)
(22 17)
(26 24)
(25 26)
(27 25)
(24 27)
(28 29)
(29 30)
(30 31)
(31 28)
(26 29)
(28 24)
(27 31)
(30 25)
(34 32)
(33 34)
(35 33)
(32 35)
(36 37)
(37 38)
(38 39)
(39 36)
(34 37)
(36 32)
(35 39)
(38 33)
)

// concaveStart mixedStart nonFeatureStart
40 40 40
// internalStart flatStart openStart multipleStart
60 60 60 60
// normals

60
(
(0 0 -1)
(0 -1 0)
(1 0 0)
(0 0 -1)
(0 1 0)
(-1 0 0)
(0 0 1)
(0 -1 0)
(1 0 0)
(0 0 1)
(0 1 -0)
(-1 0 0)
(0 0 -1)
(0 -1 0)
(1 0 0)
(0 0 -1)
(0 1 0)
(-1 0 0)
(0 0 1)
(0 -1 0)
(1 0 0)
(0 0 1)
(0 1 -0)
(-1 0 0)
(0 0 -1)
(0 -1 0)
(1 0 0)
(0 0 -1)
(0 1 0)
(-1 0 0)
(0 0 1)
(0 -1 0)
(1 0 0)
(0 0 1)
(0 1 -0)
(-1 0 0)
(0 0 -1)
(0 -1 0)
(1 0 0)
(0 0 -1)
(0 1 0)
(-1 0 0)
(0 0 1)
(0 -1 0)
(1 0 0)
(0 0 1)
(0 1 -0)
(-1 0 0)
(0 0 -1)
(0 -1 0)
(1 0 0)
(0 0 -1)
(0 1 0)
(-1 0 0)
(0 0 1)
(0 -1 0)
(1 0 0)
(0 0 1)
(0 1 -0)
(-1 0 0)
)

// normal volume types

60
(
0
0
0
0
0
0
0
0
0
0
0
0
0
0
0
0
0
0
0
0
0
0
0
0
0
0
0
0
0
0
0
0
0
0
0
0
0
0
0
0
0
0
0
0
0
0
0
0
0
0
0
0
0
0
0
0
0
0
0
0
)

// normalDirections

60
(
2(1 -1)
2(1 -1)
2(1 -1)
2(1 -1)
2(1 -1)
2(1 -1)
2(1 -1)
2(1 -1)
2(1 -1)
2(1 -1)
2(1 -1)
2(1 -1)
2(1 -1)
2(1 -1)
2(1 -1)
2(1 -1)
2(1 -1)
2(1 -1)
2(1 -1)
2(1 -1)
2(1 -1)
2(1 -1)
2(1 -1)
2(1 -1)
2(1 -1)
2(1 -1)
2(1 -1)
2(1 -1)
2(1 -1)
2(1 -1)
2(1 -1)
2(1 -1)
2(1 -1)
2(1 -1)
2(1 -1)
2(1 -1)
2(1 -1)
2(1 -1)
2(1 -1)
2(1 -1)
2(1 -1)
2(1 -1)
2(1 -1)
2(1 -1)
2(1 -1)
2(1 -1)
2(1 -1)
2(1 -1)
2(1 -1)
2(1 -1)
2(1 -1)
2(1 -1)
2(1 -1)
2(1 -1)
2(1 -1)
2(1 -1)
2(1 -1)
2(1 -1)
2(1 -1)
2(1 -1)
)

// edgeNormals

60
(
2(0 1)
2(0 2)
2(3 4)
2(3 5)
2(6 7)
2(6 8)
2(9 10)
2(9 11)
2(1 8)
2(7 11)
2(4 5)
2(10 2)
2(12 13)
2(12 14)
2(15 16)
2(15 17)
2(18 19)
2(18 20)
2(21 22)
2(21 23)
2(13 20)
2(19 23)
2(16 17)
2(22 14)
2(24 25)
2(24 26)
2(27 28)
2(27 29)
2(30 31)
2(30 32)
2(33 34)
2(33 35)
2(25 32)
2(31 35)
2(28 29)
2(34 26)
2(36 37)
2(36 38)
2(39 40)
2(39 41)
2(42 43)
2(42 44)
2(45 46)
2(45 47)
2(37 44)
2(43 47)
2(40 41)
2(46 38)
2(48 49)
2(48 50)
2(51 52)
2(51 53)
2(54 55)
2(54 56)
2(57 58)
2(57 59)
2(49 56)
2(55 59)
2(52 53)
2(58 50)
)

// featurePointNormals

40
(
3(0 1 5)
3(0 2 4)
3(0 1 2)
3(3 4 5)
3(6 7 11)
3(6 7 8)
3(6 8 10)
3(9 10 11)
3(12 13 17)
3(12 14 16)
3(12 13 14)
3(15 16 17)
3(18 19 23)
3(18 19 20)
3(18 20 22)
3(21 22 23)
3(24 25 29)
3(24 26 28)
3(24 25 26)
3(27 28 29)
3(30 31 35)
3(30 31 32)
3(30 32 34)
3(33 34 35)
3(36 37 41)
3(36 38 40)
3(36 37 38)
3(39 40 41)
3(42 43 47)
3(42 43 44)
3(42 44 46)
3(45 46 47)
3(48 49 53)
3(48 50 52)
3(48 49 50)
3(51 52 53)
3(54 55 59)
3(54 55 56)
3(54 56 58)
3(57 58 59)
)

// featurePointEdges

40
(
3(3 9 0)
3(2 11 1)
3(0 8 1)
3(2 10 3)
3(7 9 4)
3(4 8 5)
3(6 11 5)
3(6 10 7)
3(15 21 12)
3(14 23 13)
3(12 20 13)
3(14 22 15)
3(19 21 16)
3(16 20 17)
3(18 23 17)
3(18 22 19)
3(27 33 24)
3(26 35 25)
3(24 32 25)
3(26 34 27)
3(31 33 28)
3(28 32 29)
3(30 35 29)
3(30 34 31)
3(39 45 36)
3(38 47 37)
3(36 44 37)
3(38 46 39)
3(43 45 40)
3(40 44 41)
3(42 47 41)
3(42 46 43)
3(51 57 48)
3(50 59 49)
3(48 56 49)
3(50 58 51)
3(55 57 52)
3(52 56 53)
3(54 59 53)
3(54 58 55)
)

// regionEdges
0()


// ************************************************************************* //
