/*--------------------------------*- C++ -*----------------------------------*\
  =========                 |
  \\      /  F ield         | OpenFOAM: The Open Source CFD Toolbox
   \\    /   O peration     | Website:  https://openfoam.org
    \\  /    A nd           | Version:  dev
     \\/     M anipulation  |
\*---------------------------------------------------------------------------*/
FoamFile
{   version     2.0;
    format      ascii;
    class       dictionary;
    location    "system";
    object      controlDict;
}
// * * * * * * * * * * * * * * * * * * * * * * * * * * * * * * * * * * * * * //

application     foamRun;
solver          fluid;

startFrom       startTime;
startTime       0;
stopAt          endTime;
endTime         2000;
deltaT          1;
writeControl    timeStep;
writeInterval   100;
purgeWrite      3;
writeFormat     ascii;
writePrecision  6;
writeCompression off;
timeFormat      general;
timePrecision   6;
runTimeModifiable false;
libs
(
    "libfvModels.so"
    "libfvConstraints.so"
    "libturbulenceModels.so"
    "libatmosphericModels.so"
    "libsolverFunctionObjects.so"
);

// --- CORRECTED FUNCTION OBJECTS SECTION ---
functions
{
    scalarTransport1
    {
        type            scalarTransport;
        libs            ("libsolverFunctionObjects.so");
        field           C; // or C, if that's your scalar field
        diffusivity     constant;
        D               1e-6;

    }
    
    forces
    {
        type                forces;
        libs                ("libforces.so");
        writeControl        timeStep;
        writeInterval       50;
        patches             ("buildings.*");
		rho                 rhoInf;
        rhoInf              1.225;
        CofR                (0 0 0);
    }
	writeFields
    {
        type            writeObjects;
        libs            ("libutilityFunctionObjects.so");
        objects         (U p);
        writeControl    adjustableRunTime;
        writeInterval   0.05;
        writeOption     autoWrite;
    }
}
		
// ************************************************************************* //