/*--------------------------------*- C++ -*----------------------------------*\
  =========                 |
  \\      /  F ield         | OpenFOAM: The Open Source CFD Toolbox
   \\    /   O peration     | Website:  https://openfoam.org
    \\  /    A nd           | Version:  dev
     \\/     M anipulation  |
\*---------------------------------------------------------------------------*/
FoamFile
{   
    version     2.0;
    format      ascii;
    class       dictionary;
    location    "system";
    object      topoSetDict;
}
// * * * * * * * * * * * * * * * * * * * * * * * * * * * * * * * * * * * * * //
actions
(
    // Create pollution source zone
    {
        name    pollutionSourceZone;
        type    cellSet;
        action  new;
        source  boxToCell;
        sourceInfo
        {
            box (45 45 0)(55 55 5);
        }
    }

    {
        name    pollutionSourceZone;
        type    cellZoneSet;
        action  new;
        source  setToCellZone;
        sourceInfo
        {
            set pollutionSourceZone;
        }
    }
	 // Create heat source zone
    {
        name    heatSourceZone;
        type    cellSet;
        action  new;
        source  boxToCell;
        sourceInfo
        {
            box (15 15 0)(85 65 10);
        }
    }

    {
        name    heatSourceZone;
        type    cellZoneSet;
        action  new;
        source  setToCellZone;
        sourceInfo
        {
            set heatSourceZone;
        }
    }
);
// ************************************************************************* //
