/*--------------------------------*- C++ -*----------------------------------*\
  =========                 |
  \\      /  F ield         | OpenFOAM: The Open Source CFD Toolbox
   \\    /   O peration     | Website:  https://openfoam.org
    \\  /    A nd           | Version:  dev
     \\/     M anipulation  |
\*---------------------------------------------------------------------------*/
FoamFile
{   
    version     2.0;
    format      ascii;
    class       dictionary;
    object      blockMeshDict;
}

// * * * * * * * * * * * * * * * * * * * * * * * * * * * * * * * * * * * * * //
convertToMeters 1;

vertices
(
    (0   0   0  )   // 0
    (250 0   0  )   // 1
    (250 200 0  )   // 2
    (0   200 0  )   // 3
    (0   0   200)   // 4
    (250 0   200)   // 5
    (250 200 200)   // 6
    (0   200 200)   // 7
);

blocks
(
    hex (0 1 2 3 4 5 6 7) (50 40 40) simpleGrading (1 1 1)
);

edges
(
);

boundary
(
    inlet
    {
        type patch;
        faces
		(
            (0 4 7 3)
        );
    }
    outlet
    {
        type patch;
        faces
        (
            (2 6 5 1)
        );
    }
    sides
    {
        type symmetry;  // CHANGED FROM symmetryPlane to symmetry
        faces
        (
            (1 5 4 0)
            (3 7 6 2)
        );
    }
    ground
    {
        type wall;
        faces
        (
            (0 1 2 3)
        );
    }
    top
    {
        type patch;
        faces
        (
            (4 5 6 7)
        );
    }
);

mergePatchPairs
(
);

// ************************************************************************* //
