/*--------------------------------*- C++ -*----------------------------------*\
  =========                 |
  \\      /  F ield         | OpenFOAM: The Open Source CFD Toolbox
   \\    /   O peration     | Website:  https://openfoam.org
    \\  /    A nd           | Version:  dev
     \\/     M anipulation  |
\*---------------------------------------------------------------------------*/
FoamFile
{
    format      ascii;
    class       dictionary;
    object      fvConstraints;
}
// * * * * * * * * * * * * * * * * * * * * * * * * * * * * * * * * * * * * * //

fixedTemperatureConstraint1
{
    type            fixedTemperatureConstraint;
    select          all;  // Use 'select' instead of 'selectionMode'
    
    mode            uniform;
    temperature     constant 291.15;
}

limitVelocity1
{
    type            limitMag;
    selectionMode   all;
    field           U;
    max             50.0;
}


// ************************************************************************* //
