/*--------------------------------*- C++ -*----------------------------------*\
  =========                 |
  \\      /  F ield         | OpenFOAM: The Open Source CFD Toolbox
   \\    /   O peration     | Website:  https://openfoam.org
    \\  /    A nd           | Version:  dev
     \\/     M anipulation  |
\*---------------------------------------------------------------------------*/
FoamFile
{
    format      ascii;
    class       dictionary;
    location    "system";
    object      fvSchemes;
}
// * * * * * * * * * * * * * * * * * * * * * * * * * * * * * * * * * * * * * //
ddtSchemes
{
    default         Euler;
}

gradSchemes
{
    default         Gauss linear;
    grad(U)         cellLimited Gauss linear 1;
    grad(K)         Gauss linear;
	grad(h)         cellLimited Gauss linear 1;
	grad(T)         cellLimited Gauss linear 1;
}

divSchemes
{
    default         none;
    div(phi,U)      bounded Gauss linearUpwind grad(U);
	div(phi,omega)  bounded Gauss upwind;  // Add this line
    div(phi,K)      bounded Gauss upwind;       // Add this line
    div(phi,k)      bounded Gauss upwind;
    div(phi,epsilon) bounded Gauss upwind;
    div(phi,h)      bounded Gauss upwind;
	div(phi,T)      bounded Gauss upwind;
	div(phi,C)      bounded Gauss upwind;
}


laplacianSchemes
{
    default         Gauss linear corrected;
	laplacian(alpha,h)  Gauss linear corrected;
	laplacian(alphaEff,h)   Gauss linear limited corrected 0.5;
    laplacian(k,T)          Gauss linear limited corrected 0.5;
}

interpolationSchemes
{
    default         linear;
}

snGradSchemes
{
    default         corrected;
}
wallDist
{
    method          meshWave;
    correctWalls    true;
    nCorrectors     2;
}
fluxRequired
{
    h;  // Add if missing
}

// ************************************************************************* //
