/*--------------------------------*- C++ -*----------------------------------*\
  =========                 |
  \\      /  F ield         | OpenFOAM: The Open Source CFD Toolbox
   \\    /   O peration     | Website:  https://openfoam.org
    \\  /    A nd           | Version:  dev
     \\/     M anipulation  |
\*---------------------------------------------------------------------------*/
FoamFile
{
    format      ascii;
    class       volScalarField;
    location    "0";
    object      k;
}
// * * * * * * * * * * * * * * * * * * * * * * * * * * * * * * * * * * * * * //

#include        "include/initialConditions"

dimensions      [0 2 -2 0 0 0 0];

internalField   uniform $turbulentKE;

boundaryField
{
    inlet
    {
        type            atmBoundaryLayerInletK;

        // ABL parameters
        Uref            10.0;
        Zref            10.0;
        zDir            (0 0 1);
        flowDir         (1 0 0);
        z0              uniform 0.1;
        zGround         uniform 0.0;

        value           uniform $turbulentKE;
    }

    outlet
    {
        type            inletOutlet;
        inletValue      uniform $turbulentKE;
        value           uniform $turbulentKE;
    }

    ground
    {
        type            kqRWallFunction;
        value           uniform $turbulentKE;
    }
	buildings
    {
        type            kqRWallFunction;
        value           uniform $turbulentKE;
    }

    top
    {
        type            slip;
    }

    sides
    {
        type            symmetry;
    }
}
// ************************************************************************* //
