/*--------------------------------*- C++ -*----------------------------------*\
  =========                 |
  \\      /  F ield         | OpenFOAM: The Open Source CFD Toolbox
   \\    /   O peration     | Website:  https://openfoam.org
    \\  /    A nd           | Version:  dev
     \\/     M anipulation  |
\*---------------------------------------------------------------------------*/
FoamFile
{
    format      ascii;
    class       volScalarField;
    location    "0";
    object      nut;
}
// * * * * * * * * * * * * * * * * * * * * * * * * * * * * * * * * * * * * * //

dimensions      [0 2 -1 0 0 0 0];

internalField   uniform 1.5e-4;  // nut = Cmu * k^2 / epsilon

boundaryField
{
    buildings
    {
        type            nutkWallFunction;
        value           uniform 0;
    }
    
    atmosphere
    {
        type            calculated;
        value           uniform 1.5e-4;
    }
    
    ground
    {
        type            nutkWallFunction;
        value           uniform 0;
    }
    inlet
    {
        type            calculated;
        value           uniform 1.5e-4;
    }
    
    outlet
    {
        type            calculated;
        value           uniform 1.5e-4;
    }
    
    sides
    {
        type            symmetry;
        //value           uniform 1.5e-4;
    }
    
    top
    {
        type            calculated;
        value           uniform 1.5e-4;
    }
    defaultFaces
    {
        type            empty;
    }
}

// ************************************************************************* //
