/*--------------------------------*- C++ -*----------------------------------*\
  =========                 |
  \\      /  F ield         | OpenFOAM: The Open Source CFD Toolbox
   \\    /   O peration     | Website:  https://openfoam.org
    \\  /    A nd           | Version:  dev
     \\/     M anipulation  |
\*---------------------------------------------------------------------------*/
FoamFile
{
    format      ascii;
    class       volScalarField;
    location    "0";
    object      omega;
}
// * * * * * * * * * * * * * * * * * * * * * * * * * * * * * * * * * * * * * //

#include        "include/initialConditions"

dimensions      [0 0 -1 0 0 0 0];

internalField   uniform $turbulentOmega;

boundaryField
{
    inlet
    {
        type            turbulentMixingLengthFrequencyInlet;
        mixingLength    0.7;  // Mixing length scale in meters
        value           uniform 10;  // Initial value
        // ABL parameters
        Uref            10.0;
        Zref            10.0;
        zDir            (0 0 1);
        flowDir         (1 0 0);
        z0              uniform 0.1;
        zGround         uniform 0.0;

        value           uniform $turbulentOmega;
    }

    outlet
    {
        type            inletOutlet;
        inletValue      uniform $turbulentOmega;
        value           uniform $turbulentOmega;
    }

    ground
    {
        type            omegaWallFunction;
        value           uniform $turbulentOmega;
    }
	buildings
    {
        type            omegaWallFunction;
        value           uniform $turbulentOmega;
    }

    top
    {
        type            slip;
    }

    sides
    {
        type            symmetry;
    }
}
    
// ************************************************************************* //
