/*--------------------------------*- C++ -*----------------------------------*\
  =========                 |
  \\      /  F ield         | OpenFOAM: The Open Source CFD Toolbox
   \\    /   O peration     | Website:  https://openfoam.org
    \\  /    A nd           | Version:  dev
     \\/     M anipulation  |
\*---------------------------------------------------------------------------*/
FoamFile
{
    format      ascii;
    class       volScalarField;
    object      T;
}
// * * * * * * * * * * * * * * * * * * * * * * * * * * * * * * * * * * * * * //

#include        "include/initialConditions"

dimensions      [0 0 0 1 0 0 0];

internalField   uniform $temperature;

boundaryField
{
    inlet
    {
        type            fixedValue;
        value           uniform $temperature;
    }

    outlet
    {
        type            inletOutlet;
        inletValue      uniform $temperature;
        value           uniform $temperature;
    }

    ground
    {
        type            fixedValue;
        value           uniform 293.15;
    }

    buildings
    {
        type            fixedValue;
        value           uniform 291.15;
    }

    top
    {
        type            inletOutlet;
        inletValue      uniform $temperature;
        value           uniform $temperature;
    }

    sides
    {
        type            symmetry;
    }
}
// ************************************************************************* //
